L6/1726520/Cargas.dss
! ==========================================================
! CARGAS — mes 01
! BT: UCBT_tab agregada por transformador (kW = ENE/730 h)
! MT: UCMT_tab individual no PAC do consumidor
! fator de escala aplicado: 1
! 0 cargas de MT descartadas por PAC ausente da rede.
! ==========================================================
New Load.BT_331242636_1129373582_1 Bus1=node_460564649.1.4 Phases=1 Model=8 zipv=(0.5,0,0.5,1,0,0,0) kv=0.1270 pf=0.92 kW=24.068037 Daily=COM1_26
New Load.BT_331242636_1129373582_2 Bus1=node_460564649.2.4 Phases=1 Model=8 zipv=(0.5,0,0.5,1,0,0,0) kv=0.1270 pf=0.92 kW=24.068037 Daily=COM1_26
New Load.BT_331242636_1129373582_3 Bus1=node_460564649.3.4 Phases=1 Model=8 zipv=(0.5,0,0.5,1,0,0,0) kv=0.1270 pf=0.92 kW=24.068037 Daily=COM1_26
New Load.BT_331366848_331720946_1 Bus1=node_412207634.1.4 Phases=1 Model=8 zipv=(0.5,0,0.5,1,0,0,0) kv=0.1200 pf=0.92 kW=1.586986 Daily=RES1_25
New Load.BT_331366848_331720946_2 Bus1=node_412207634.2.4 Phases=1 Model=8 zipv=(0.5,0,0.5,1,0,0,0) kv=0.1200 pf=0.92 kW=1.586986 Daily=RES1_25
New Load.BT_325956357_326745279_1 Bus1=node_408398056.1.4 Phases=1 Model=8 zipv=(0.5,0,0.5,1,0,0,0) kv=0.1270 pf=0.92 kW=6.774429 Daily=RES1_25
New Load.BT_325956357_326745279_2 Bus1=node_408398056.2.4 Phases=1 Model=8 zipv=(0.5,0,0.5,1,0,0,0) kv=0.1270 pf=0.92 kW=6.774429 Daily=RES1_25
New Load.BT_325956357_326745279_3 Bus1=node_408398056.3.4 Phases=1 Model=8 zipv=(0.5,0,0.5,1,0,0,0) kv=0.1270 pf=0.92 kW=6.774429 Daily=RES1_25
New Load.BT_331571624_1800482812_1 Bus1=node_412599197.1.4 Phases=1 Model=8 zipv=(0.5,0,0.5,1,0,0,0) kv=0.1270 pf=0.92 kW=0.528311 Daily=COM1_26
New Load.BT_331571624_1800482812_2 Bus1=node_412599197.2.4 Phases=1 Model=8 zipv=(0.5,0,0.5,1,0,0,0) kv=0.1270 pf=0.92 kW=0.528311 Daily=COM1_26
New Load.BT_331571624_1800482812_3 Bus1=node_412599197.3.4 Phases=1 Model=8 zipv=(0.5,0,0.5,1,0,0,0) kv=0.1270 pf=0.92 kW=0.528311 Daily=COM1_26
New Load.BT_331366176_331572709_1 Bus1=node_412191116.1.4 Phases=1 Model=8 zipv=(0.5,0,0.5,1,0,0,0) kv=0.1270 pf=0.92 kW=7.777626 Daily=COM1_26
New Load.BT_331366176_331572709_2 Bus1=node_412191116.2.4 Phases=1 Model=8 zipv=(0.5,0,0.5,1,0,0,0) kv=0.1270 pf=0.92 kW=7.777626 Daily=COM1_26
New Load.BT_331366176_331572709_3 Bus1=node_412191116.3.4 Phases=1 Model=8 zipv=(0.5,0,0.5,1,0,0,0) kv=0.1270 pf=0.92 kW=7.777626 Daily=COM1_26
New Load.BT_331241098_331776516_1 Bus1=node_412163354.1.4 Phases=1 Model=8 zipv=(0.5,0,0.5,1,0,0,0) kv=0.1270 pf=0.92 kW=2.825571 Daily=RES1_25
New Load.BT_331241098_331776516_2 Bus1=node_412163354.2.4 Phases=1 Model=8 zipv=(0.5,0,0.5,1,0,0,0) kv=0.1270 pf=0.92 kW=2.825571 Daily=RES1_25
New Load.BT_331241098_331776516_3 Bus1=node_412163354.3.4 Phases=1 Model=8 zipv=(0.5,0,0.5,1,0,0,0) kv=0.1270 pf=0.92 kW=2.825571 Daily=RES1_25
New Load.BT_331366016_331732333_1 Bus1=node_2822673892.1.4 Phases=1 Model=8 zipv=(0.5,0,0.5,1,0,0,0) kv=0.1200 pf=0.92 kW=0.806164 Daily=RES1_25
New Load.BT_331366016_331732333_2 Bus1=node_2822673892.2.4 Phases=1 Model=8 zipv=(0.5,0,0.5,1,0,0,0) kv=0.1200 pf=0.92 kW=0.806164 Daily=RES1_25
New Load.BT_331241610_331766944_1 Bus1=node_412909838.1.4 Phases=1 Model=8 zipv=(0.5,0,0.5,1,0,0,0) kv=0.1270 pf=0.92 kW=1.354795 Daily=RES1_25
New Load.BT_331241610_331766944_2 Bus1=node_412909838.2.4 Phases=1 Model=8 zipv=(0.5,0,0.5,1,0,0,0) kv=0.1270 pf=0.92 kW=1.354795 Daily=RES1_25
New Load.BT_331241610_331766944_3 Bus1=node_412909838.3.4 Phases=1 Model=8 zipv=(0.5,0,0.5,1,0,0,0) kv=0.1270 pf=0.92 kW=1.354795 Daily=RES1_25
New Load.BT_325954629_326523871_1 Bus1=node_408605005.1.4 Phases=1 Model=8 zipv=(0.5,0,0.5,1,0,0,0) kv=0.1200 pf=0.92 kW=1.007534 Daily=RES1_25
New Load.BT_325954629_326523871_2 Bus1=node_408605005.2.4 Phases=1 Model=8 zipv=(0.5,0,0.5,1,0,0,0) kv=0.1200 pf=0.92 kW=1.007534 Daily=RES1_25
New Load.BT_326383717_326786791_1 Bus1=node_408270006.1.4 Phases=1 Model=8 zipv=(0.5,0,0.5,1,0,0,0) kv=0.1270 pf=0.92 kW=2.812329 Daily=RES1_25
New Load.BT_326383717_326786791_2 Bus1=node_408270006.2.4 Phases=1 Model=8 zipv=(0.5,0,0.5,1,0,0,0) kv=0.1270 pf=0.92 kW=2.812329 Daily=RES1_25
New Load.BT_326383717_326786791_3 Bus1=node_408270006.3.4 Phases=1 Model=8 zipv=(0.5,0,0.5,1,0,0,0) kv=0.1270 pf=0.92 kW=2.812329 Daily=RES1_25
New Load.BT_331473744_331721968_1 Bus1=node_412193144.1.4 Phases=1 Model=8 zipv=(0.5,0,0.5,1,0,0,0) kv=0.1270 pf=0.92 kW=6.377626 Daily=RES1_25
New Load.BT_331473744_331721968_2 Bus1=node_412193144.2.4 Phases=1 Model=8 zipv=(0.5,0,0.5,1,0,0,0) kv=0.1270 pf=0.92 kW=6.377626 Daily=RES1_25
New Load.BT_331473744_331721968_3 Bus1=node_412193144.3.4 Phases=1 Model=8 zipv=(0.5,0,0.5,1,0,0,0) kv=0.1270 pf=0.92 kW=6.377626 Daily=RES1_25
New Load.BT_331364771_331776370_1 Bus1=node_412209359.1.4 Phases=1 Model=8 zipv=(0.5,0,0.5,1,0,0,0) kv=0.1200 pf=0.92 kW=8.523288 Daily=COM1_26
New Load.BT_331364771_331776370_2 Bus1=node_412209359.2.4 Phases=1 Model=8 zipv=(0.5,0,0.5,1,0,0,0) kv=0.1200 pf=0.92 kW=8.523288 Daily=COM1_26
New Load.BT_331571780_331776464_1 Bus1=node_412193702.1.4 Phases=1 Model=8 zipv=(0.5,0,0.5,1,0,0,0) kv=0.1270 pf=0.92 kW=10.137900 Daily=RES1_25
New Load.BT_331571780_331776464_2 Bus1=node_412193702.2.4 Phases=1 Model=8 zipv=(0.5,0,0.5,1,0,0,0) kv=0.1270 pf=0.92 kW=10.137900 Daily=RES1_25
New Load.BT_331571780_331776464_3 Bus1=node_412193702.3.4 Phases=1 Model=8 zipv=(0.5,0,0.5,1,0,0,0) kv=0.1270 pf=0.92 kW=10.137900 Daily=RES1_25
New Load.BT_331471318_331721913_1 Bus1=node_412190414.1.4 Phases=1 Model=8 zipv=(0.5,0,0.5,1,0,0,0) kv=0.1270 pf=0.92 kW=6.520548 Daily=RES1_25
New Load.BT_331471318_331721913_2 Bus1=node_412190414.2.4 Phases=1 Model=8 zipv=(0.5,0,0.5,1,0,0,0) kv=0.1270 pf=0.92 kW=6.520548 Daily=RES1_25
New Load.BT_331471318_331721913_3 Bus1=node_412190414.3.4 Phases=1 Model=8 zipv=(0.5,0,0.5,1,0,0,0) kv=0.1270 pf=0.92 kW=6.520548 Daily=RES1_25
New Load.BT_330772438_331732290_1 Bus1=node_412192127.1.4 Phases=1 Model=8 zipv=(0.5,0,0.5,1,0,0,0) kv=0.1270 pf=0.92 kW=4.792694 Daily=RES1_25
New Load.BT_330772438_331732290_2 Bus1=node_412192127.2.4 Phases=1 Model=8 zipv=(0.5,0,0.5,1,0,0,0) kv=0.1270 pf=0.92 kW=4.792694 Daily=RES1_25
New Load.BT_330772438_331732290_3 Bus1=node_412192127.3.4 Phases=1 Model=8 zipv=(0.5,0,0.5,1,0,0,0) kv=0.1270 pf=0.92 kW=4.792694 Daily=RES1_25
New Load.BT_331473080_331729740_1 Bus1=node_459800894.1.4 Phases=1 Model=8 zipv=(0.5,0,0.5,1,0,0,0) kv=0.1270 pf=0.92 kW=0.905479 Daily=RES1_25
New Load.BT_331473080_331729740_2 Bus1=node_459800894.2.4 Phases=1 Model=8 zipv=(0.5,0,0.5,1,0,0,0) kv=0.1270 pf=0.92 kW=0.905479 Daily=RES1_25
New Load.BT_331473080_331729740_3 Bus1=node_459800894.3.4 Phases=1 Model=8 zipv=(0.5,0,0.5,1,0,0,0) kv=0.1270 pf=0.92 kW=0.905479 Daily=RES1_25
New Load.BT_331570682_1038366492_1 Bus1=node_412597790.1.4 Phases=1 Model=8 zipv=(0.5,0,0.5,1,0,0,0) kv=0.1200 pf=0.92 kW=10.743151 Daily=RES1_25
New Load.BT_331570682_1038366492_2 Bus1=node_412597790.2.4 Phases=1 Model=8 zipv=(0.5,0,0.5,1,0,0,0) kv=0.1200 pf=0.92 kW=10.743151 Daily=RES1_25
New Load.BT_331366234_331765617_1 Bus1=node_460026023.1.4 Phases=1 Model=8 zipv=(0.5,0,0.5,1,0,0,0) kv=0.1270 pf=0.92 kW=3.881279 Daily=RES1_25
New Load.BT_331366234_331765617_2 Bus1=node_460026023.2.4 Phases=1 Model=8 zipv=(0.5,0,0.5,1,0,0,0) kv=0.1270 pf=0.92 kW=3.881279 Daily=RES1_25
New Load.BT_331366234_331765617_3 Bus1=node_460026023.3.4 Phases=1 Model=8 zipv=(0.5,0,0.5,1,0,0,0) kv=0.1270 pf=0.92 kW=3.881279 Daily=RES1_25
New Load.BT_331240866_331729899_1 Bus1=node_412909886.1.4 Phases=1 Model=8 zipv=(0.5,0,0.5,1,0,0,0) kv=0.1270 pf=0.92 kW=2.594977 Daily=RES1_25
New Load.BT_331240866_331729899_2 Bus1=node_412909886.2.4 Phases=1 Model=8 zipv=(0.5,0,0.5,1,0,0,0) kv=0.1270 pf=0.92 kW=2.594977 Daily=RES1_25
New Load.BT_331240866_331729899_3 Bus1=node_412909886.3.4 Phases=1 Model=8 zipv=(0.5,0,0.5,1,0,0,0) kv=0.1270 pf=0.92 kW=2.594977 Daily=RES1_25
New Load.BT_331474624_331776512_1 Bus1=node_412190168.1.4 Phases=1 Model=8 zipv=(0.5,0,0.5,1,0,0,0) kv=0.1270 pf=0.92 kW=6.158447 Daily=RES1_25
New Load.BT_331474624_331776512_2 Bus1=node_412190168.2.4 Phases=1 Model=8 zipv=(0.5,0,0.5,1,0,0,0) kv=0.1270 pf=0.92 kW=6.158447 Daily=RES1_25
New Load.BT_331474624_331776512_3 Bus1=node_412190168.3.4 Phases=1 Model=8 zipv=(0.5,0,0.5,1,0,0,0) kv=0.1270 pf=0.92 kW=6.158447 Daily=RES1_25
New Load.BT_331241541_331721909_1 Bus1=node_412190738.1.4 Phases=1 Model=8 zipv=(0.5,0,0.5,1,0,0,0) kv=0.1270 pf=0.92 kW=5.262557 Daily=RES1_25
New Load.BT_331241541_331721909_2 Bus1=node_412190738.2.4 Phases=1 Model=8 zipv=(0.5,0,0.5,1,0,0,0) kv=0.1270 pf=0.92 kW=5.262557 Daily=RES1_25
New Load.BT_331241541_331721909_3 Bus1=node_412190738.3.4 Phases=1 Model=8 zipv=(0.5,0,0.5,1,0,0,0) kv=0.1270 pf=0.92 kW=5.262557 Daily=RES1_25
New Load.BT_331472191_331778189_1 Bus1=node_412610647.1.4 Phases=1 Model=8 zipv=(0.5,0,0.5,1,0,0,0) kv=0.1200 pf=0.92 kW=7.584247 Daily=RES1_25
New Load.BT_331472191_331778189_2 Bus1=node_412610647.2.4 Phases=1 Model=8 zipv=(0.5,0,0.5,1,0,0,0) kv=0.1200 pf=0.92 kW=7.584247 Daily=RES1_25
New Load.BT_331472521_331723259_1 Bus1=node_412207034.1.4 Phases=1 Model=8 zipv=(0.5,0,0.5,1,0,0,0) kv=0.1270 pf=0.92 kW=3.732877 Daily=RES1_25
New Load.BT_331472521_331723259_2 Bus1=node_412207034.2.4 Phases=1 Model=8 zipv=(0.5,0,0.5,1,0,0,0) kv=0.1270 pf=0.92 kW=3.732877 Daily=RES1_25
New Load.BT_331472521_331723259_3 Bus1=node_412207034.3.4 Phases=1 Model=8 zipv=(0.5,0,0.5,1,0,0,0) kv=0.1270 pf=0.92 kW=3.732877 Daily=RES1_25
New Load.BT_331473895_331720773_1 Bus1=node_413010365.1.4 Phases=1 Model=8 zipv=(0.5,0,0.5,1,0,0,0) kv=0.1270 pf=0.92 kW=0.792694 Daily=RES1_25
New Load.BT_331473895_331720773_2 Bus1=node_413010365.2.4 Phases=1 Model=8 zipv=(0.5,0,0.5,1,0,0,0) kv=0.1270 pf=0.92 kW=0.792694 Daily=RES1_25
New Load.BT_331473895_331720773_3 Bus1=node_413010365.3.4 Phases=1 Model=8 zipv=(0.5,0,0.5,1,0,0,0) kv=0.1270 pf=0.92 kW=0.792694 Daily=RES1_25
New Load.BT_331365342_331723349_1 Bus1=node_412191866.1.4 Phases=1 Model=8 zipv=(0.5,0,0.5,1,0,0,0) kv=0.1270 pf=0.92 kW=1.984475 Daily=RES1_25
New Load.BT_331365342_331723349_2 Bus1=node_412191866.2.4 Phases=1 Model=8 zipv=(0.5,0,0.5,1,0,0,0) kv=0.1270 pf=0.92 kW=1.984475 Daily=RES1_25
New Load.BT_331365342_331723349_3 Bus1=node_412191866.3.4 Phases=1 Model=8 zipv=(0.5,0,0.5,1,0,0,0) kv=0.1270 pf=0.92 kW=1.984475 Daily=RES1_25
New Load.BT_331473227_331572754_1 Bus1=node_412193600.1.4 Phases=1 Model=8 zipv=(0.5,0,0.5,1,0,0,0) kv=0.1200 pf=0.92 kW=5.268493 Daily=RES1_25
New Load.BT_331473227_331572754_2 Bus1=node_412193600.2.4 Phases=1 Model=8 zipv=(0.5,0,0.5,1,0,0,0) kv=0.1200 pf=0.92 kW=5.268493 Daily=RES1_25
New Load.BT_331571456_331766756_1 Bus1=node_413057697.1.4 Phases=1 Model=8 zipv=(0.5,0,0.5,1,0,0,0) kv=0.1200 pf=0.92 kW=1.296575 Daily=RES1_25
New Load.BT_331571456_331766756_2 Bus1=node_413057697.2.4 Phases=1 Model=8 zipv=(0.5,0,0.5,1,0,0,0) kv=0.1200 pf=0.92 kW=1.296575 Daily=RES1_25
New Load.BT_331367694_331776449_1 Bus1=node_412191848.1.4 Phases=1 Model=8 zipv=(0.5,0,0.5,1,0,0,0) kv=0.1270 pf=0.92 kW=6.523744 Daily=RES1_25
New Load.BT_331367694_331776449_2 Bus1=node_412191848.2.4 Phases=1 Model=8 zipv=(0.5,0,0.5,1,0,0,0) kv=0.1270 pf=0.92 kW=6.523744 Daily=RES1_25
New Load.BT_331367694_331776449_3 Bus1=node_412191848.3.4 Phases=1 Model=8 zipv=(0.5,0,0.5,1,0,0,0) kv=0.1270 pf=0.92 kW=6.523744 Daily=RES1_25
New Load.BT_331367558_331765597_1 Bus1=node_412190786.1.4 Phases=1 Model=8 zipv=(0.5,0,0.5,1,0,0,0) kv=0.1270 pf=0.92 kW=1.420091 Daily=RES1_25
New Load.BT_331367558_331765597_2 Bus1=node_412190786.2.4 Phases=1 Model=8 zipv=(0.5,0,0.5,1,0,0,0) kv=0.1270 pf=0.92 kW=1.420091 Daily=RES1_25
New Load.BT_331367558_331765597_3 Bus1=node_412190786.3.4 Phases=1 Model=8 zipv=(0.5,0,0.5,1,0,0,0) kv=0.1270 pf=0.92 kW=1.420091 Daily=RES1_25
New Load.BT_331239795_331730718_1 Bus1=node_412332832.1.4 Phases=1 Model=8 zipv=(0.5,0,0.5,1,0,0,0) kv=0.1270 pf=0.92 kW=5.464840 Daily=RES1_25
New Load.BT_331239795_331730718_2 Bus1=node_412332832.2.4 Phases=1 Model=8 zipv=(0.5,0,0.5,1,0,0,0) kv=0.1270 pf=0.92 kW=5.464840 Daily=RES1_25
New Load.BT_331239795_331730718_3 Bus1=node_412332832.3.4 Phases=1 Model=8 zipv=(0.5,0,0.5,1,0,0,0) kv=0.1270 pf=0.92 kW=5.464840 Daily=RES1_25
New Load.BT_330773852_331776362_1 Bus1=node_412208708.1.4 Phases=1 Model=8 zipv=(0.5,0,0.5,1,0,0,0) kv=0.1200 pf=0.92 kW=6.053425 Daily=RES1_25
New Load.BT_330773852_331776362_2 Bus1=node_412208708.2.4 Phases=1 Model=8 zipv=(0.5,0,0.5,1,0,0,0) kv=0.1200 pf=0.92 kW=6.053425 Daily=RES1_25
New Load.BT_331473256_331778816_1 Bus1=node_412190405.1.4 Phases=1 Model=8 zipv=(0.5,0,0.5,1,0,0,0) kv=0.1270 pf=0.92 kW=2.487671 Daily=RES1_25
New Load.BT_331473256_331778816_2 Bus1=node_412190405.2.4 Phases=1 Model=8 zipv=(0.5,0,0.5,1,0,0,0) kv=0.1270 pf=0.92 kW=2.487671 Daily=RES1_25
New Load.BT_331473256_331778816_3 Bus1=node_412190405.3.4 Phases=1 Model=8 zipv=(0.5,0,0.5,1,0,0,0) kv=0.1270 pf=0.92 kW=2.487671 Daily=RES1_25
New Load.BT_331365903_331721830_1 Bus1=node_412207832.1.4 Phases=1 Model=8 zipv=(0.5,0,0.5,1,0,0,0) kv=0.1270 pf=0.92 kW=6.340639 Daily=RES1_25
New Load.BT_331365903_331721830_2 Bus1=node_412207832.2.4 Phases=1 Model=8 zipv=(0.5,0,0.5,1,0,0,0) kv=0.1270 pf=0.92 kW=6.340639 Daily=RES1_25
New Load.BT_331365903_331721830_3 Bus1=node_412207832.3.4 Phases=1 Model=8 zipv=(0.5,0,0.5,1,0,0,0) kv=0.1270 pf=0.92 kW=6.340639 Daily=RES1_25
New Load.BT_331365682_331721996_1 Bus1=node_412193846.1.4 Phases=1 Model=8 zipv=(0.5,0,0.5,1,0,0,0) kv=0.1200 pf=0.92 kW=4.480822 Daily=RES1_25
New Load.BT_331365682_331721996_2 Bus1=node_412193846.2.4 Phases=1 Model=8 zipv=(0.5,0,0.5,1,0,0,0) kv=0.1200 pf=0.92 kW=4.480822 Daily=RES1_25
New Load.BT_331241095_331778849_1 Bus1=node_412210502.1.4 Phases=1 Model=8 zipv=(0.5,0,0.5,1,0,0,0) kv=0.1200 pf=0.92 kW=0.210959 Daily=RES1_25
New Load.BT_331241095_331778849_2 Bus1=node_412210502.2.4 Phases=1 Model=8 zipv=(0.5,0,0.5,1,0,0,0) kv=0.1200 pf=0.92 kW=0.210959 Daily=RES1_25
New Load.BT_1123389207_1123389206_1 Bus1=node_1392661627.1.4 Phases=1 Model=8 zipv=(0.5,0,0.5,1,0,0,0) kv=0.1270 pf=0.92 kW=2.952968 Daily=RES1_25
New Load.BT_1123389207_1123389206_2 Bus1=node_1392661627.2.4 Phases=1 Model=8 zipv=(0.5,0,0.5,1,0,0,0) kv=0.1270 pf=0.92 kW=2.952968 Daily=RES1_25
New Load.BT_1123389207_1123389206_3 Bus1=node_1392661627.3.4 Phases=1 Model=8 zipv=(0.5,0,0.5,1,0,0,0) kv=0.1270 pf=0.92 kW=2.952968 Daily=RES1_25
New Load.BT_331364140_331721962_1 Bus1=node_412192172.1.4 Phases=1 Model=8 zipv=(0.5,0,0.5,1,0,0,0) kv=0.1270 pf=0.92 kW=6.121005 Daily=RES1_25
New Load.BT_331364140_331721962_2 Bus1=node_412192172.2.4 Phases=1 Model=8 zipv=(0.5,0,0.5,1,0,0,0) kv=0.1270 pf=0.92 kW=6.121005 Daily=RES1_25
New Load.BT_331364140_331721962_3 Bus1=node_412192172.3.4 Phases=1 Model=8 zipv=(0.5,0,0.5,1,0,0,0) kv=0.1270 pf=0.92 kW=6.121005 Daily=RES1_25
New Load.BT_509326162_509326163_1 Bus1=node_779448468.1.4 Phases=1 Model=8 zipv=(0.5,0,0.5,1,0,0,0) kv=0.1270 pf=0.92 kW=0.246119 Daily=RES1_25
New Load.BT_509326162_509326163_2 Bus1=node_779448468.2.4 Phases=1 Model=8 zipv=(0.5,0,0.5,1,0,0,0) kv=0.1270 pf=0.92 kW=0.246119 Daily=RES1_25
New Load.BT_509326162_509326163_3 Bus1=node_779448468.3.4 Phases=1 Model=8 zipv=(0.5,0,0.5,1,0,0,0) kv=0.1270 pf=0.92 kW=0.246119 Daily=RES1_25
New Load.BT_330774171_331765613_1 Bus1=node_412192157.1.4 Phases=1 Model=8 zipv=(0.5,0,0.5,1,0,0,0) kv=0.1270 pf=0.92 kW=3.269863 Daily=RES1_25
New Load.BT_330774171_331765613_2 Bus1=node_412192157.2.4 Phases=1 Model=8 zipv=(0.5,0,0.5,1,0,0,0) kv=0.1270 pf=0.92 kW=3.269863 Daily=RES1_25
New Load.BT_330774171_331765613_3 Bus1=node_412192157.3.4 Phases=1 Model=8 zipv=(0.5,0,0.5,1,0,0,0) kv=0.1270 pf=0.92 kW=3.269863 Daily=RES1_25
New Load.BT_331572323_331721827_1 Bus1=node_412208687.1.4 Phases=1 Model=8 zipv=(0.5,0,0.5,1,0,0,0) kv=0.1270 pf=0.92 kW=6.382648 Daily=RES1_25
New Load.BT_331572323_331721827_2 Bus1=node_412208687.2.4 Phases=1 Model=8 zipv=(0.5,0,0.5,1,0,0,0) kv=0.1270 pf=0.92 kW=6.382648 Daily=RES1_25
New Load.BT_331572323_331721827_3 Bus1=node_412208687.3.4 Phases=1 Model=8 zipv=(0.5,0,0.5,1,0,0,0) kv=0.1270 pf=0.92 kW=6.382648 Daily=RES1_25
New Load.BT_923188657_923188656_1 Bus1=node_461836632.1.4 Phases=1 Model=8 zipv=(0.5,0,0.5,1,0,0,0) kv=0.1270 pf=0.92 kW=4.176256 Daily=RES1_25
New Load.BT_923188657_923188656_2 Bus1=node_461836632.2.4 Phases=1 Model=8 zipv=(0.5,0,0.5,1,0,0,0) kv=0.1270 pf=0.92 kW=4.176256 Daily=RES1_25
New Load.BT_923188657_923188656_3 Bus1=node_461836632.3.4 Phases=1 Model=8 zipv=(0.5,0,0.5,1,0,0,0) kv=0.1270 pf=0.92 kW=4.176256 Daily=RES1_25
New Load.BT_1123389384_1123389383_1 Bus1=node_1392662076.1.4 Phases=1 Model=8 zipv=(0.5,0,0.5,1,0,0,0) kv=0.1270 pf=0.92 kW=3.675342 Daily=RES1_25
New Load.BT_1123389384_1123389383_2 Bus1=node_1392662076.2.4 Phases=1 Model=8 zipv=(0.5,0,0.5,1,0,0,0) kv=0.1270 pf=0.92 kW=3.675342 Daily=RES1_25
New Load.BT_1123389384_1123389383_3 Bus1=node_1392662076.3.4 Phases=1 Model=8 zipv=(0.5,0,0.5,1,0,0,0) kv=0.1270 pf=0.92 kW=3.675342 Daily=RES1_25
New Load.BT_331240652_331765303_1 Bus1=node_412190219.1.4 Phases=1 Model=8 zipv=(0.5,0,0.5,1,0,0,0) kv=0.1270 pf=0.92 kW=3.255251 Daily=RES1_25
New Load.BT_331240652_331765303_2 Bus1=node_412190219.2.4 Phases=1 Model=8 zipv=(0.5,0,0.5,1,0,0,0) kv=0.1270 pf=0.92 kW=3.255251 Daily=RES1_25
New Load.BT_331240652_331765303_3 Bus1=node_412190219.3.4 Phases=1 Model=8 zipv=(0.5,0,0.5,1,0,0,0) kv=0.1270 pf=0.92 kW=3.255251 Daily=RES1_25
New Load.BT_331572332_331721977_1 Bus1=node_412192874.1.4 Phases=1 Model=8 zipv=(0.5,0,0.5,1,0,0,0) kv=0.1270 pf=0.92 kW=5.906393 Daily=RES1_25
New Load.BT_331572332_331721977_2 Bus1=node_412192874.2.4 Phases=1 Model=8 zipv=(0.5,0,0.5,1,0,0,0) kv=0.1270 pf=0.92 kW=5.906393 Daily=RES1_25
New Load.BT_331572332_331721977_3 Bus1=node_412192874.3.4 Phases=1 Model=8 zipv=(0.5,0,0.5,1,0,0,0) kv=0.1270 pf=0.92 kW=5.906393 Daily=RES1_25
New Load.BT_331471468_331776459_1 Bus1=node_412191140.1.4 Phases=1 Model=8 zipv=(0.5,0,0.5,1,0,0,0) kv=0.1270 pf=0.92 kW=3.279909 Daily=RES1_25
New Load.BT_331471468_331776459_2 Bus1=node_412191140.2.4 Phases=1 Model=8 zipv=(0.5,0,0.5,1,0,0,0) kv=0.1270 pf=0.92 kW=3.279909 Daily=RES1_25
New Load.BT_331471468_331776459_3 Bus1=node_412191140.3.4 Phases=1 Model=8 zipv=(0.5,0,0.5,1,0,0,0) kv=0.1270 pf=0.92 kW=3.279909 Daily=RES1_25
New Load.BT_330773729_1927323254_1 Bus1=node_412207190.1.4 Phases=1 Model=8 zipv=(0.5,0,0.5,1,0,0,0) kv=0.1270 pf=0.92 kW=4.845205 Daily=RES1_25
New Load.BT_330773729_1927323254_2 Bus1=node_412207190.2.4 Phases=1 Model=8 zipv=(0.5,0,0.5,1,0,0,0) kv=0.1270 pf=0.92 kW=4.845205 Daily=RES1_25
New Load.BT_330773729_1927323254_3 Bus1=node_412207190.3.4 Phases=1 Model=8 zipv=(0.5,0,0.5,1,0,0,0) kv=0.1270 pf=0.92 kW=4.845205 Daily=RES1_25
New Load.BT_331366969_331766942_1 Bus1=node_412909037.1.4 Phases=1 Model=8 zipv=(0.5,0,0.5,1,0,0,0) kv=0.1270 pf=0.92 kW=1.011872 Daily=RES1_25
New Load.BT_331366969_331766942_2 Bus1=node_412909037.2.4 Phases=1 Model=8 zipv=(0.5,0,0.5,1,0,0,0) kv=0.1270 pf=0.92 kW=1.011872 Daily=RES1_25
New Load.BT_331366969_331766942_3 Bus1=node_412909037.3.4 Phases=1 Model=8 zipv=(0.5,0,0.5,1,0,0,0) kv=0.1270 pf=0.92 kW=1.011872 Daily=RES1_25
New Load.BT_331366326_331777782_1 Bus1=node_412941513.1.4 Phases=1 Model=8 zipv=(0.5,0,0.5,1,0,0,0) kv=0.1270 pf=0.92 kW=2.670320 Daily=RES1_25
New Load.BT_331366326_331777782_2 Bus1=node_412941513.2.4 Phases=1 Model=8 zipv=(0.5,0,0.5,1,0,0,0) kv=0.1270 pf=0.92 kW=2.670320 Daily=RES1_25
New Load.BT_331366326_331777782_3 Bus1=node_412941513.3.4 Phases=1 Model=8 zipv=(0.5,0,0.5,1,0,0,0) kv=0.1270 pf=0.92 kW=2.670320 Daily=RES1_25
New Load.BT_331364898_331572568_1 Bus1=node_412207412.1.4 Phases=1 Model=8 zipv=(0.5,0,0.5,1,0,0,0) kv=0.1270 pf=0.92 kW=7.055708 Daily=RES1_25
New Load.BT_331364898_331572568_2 Bus1=node_412207412.2.4 Phases=1 Model=8 zipv=(0.5,0,0.5,1,0,0,0) kv=0.1270 pf=0.92 kW=7.055708 Daily=RES1_25
New Load.BT_331364898_331572568_3 Bus1=node_412207412.3.4 Phases=1 Model=8 zipv=(0.5,0,0.5,1,0,0,0) kv=0.1270 pf=0.92 kW=7.055708 Daily=RES1_25
New Load.BT_331474548_331730576_1 Bus1=node_412190384.1.4 Phases=1 Model=8 zipv=(0.5,0,0.5,1,0,0,0) kv=0.1200 pf=0.92 kW=3.230137 Daily=RES1_25
New Load.BT_331474548_331730576_2 Bus1=node_412190384.2.4 Phases=1 Model=8 zipv=(0.5,0,0.5,1,0,0,0) kv=0.1200 pf=0.92 kW=3.230137 Daily=RES1_25
New Load.BT_331366910_1115293603_1 Bus1=node_412190375.1.4 Phases=1 Model=8 zipv=(0.5,0,0.5,1,0,0,0) kv=0.1270 pf=0.92 kW=7.635160 Daily=RES1_25
New Load.BT_331366910_1115293603_2 Bus1=node_412190375.2.4 Phases=1 Model=8 zipv=(0.5,0,0.5,1,0,0,0) kv=0.1270 pf=0.92 kW=7.635160 Daily=RES1_25
New Load.BT_331366910_1115293603_3 Bus1=node_412190375.3.4 Phases=1 Model=8 zipv=(0.5,0,0.5,1,0,0,0) kv=0.1270 pf=0.92 kW=7.635160 Daily=RES1_25
New Load.BT_331365189_331776486_1 Bus1=node_412193045.1.4 Phases=1 Model=8 zipv=(0.5,0,0.5,1,0,0,0) kv=0.1270 pf=0.92 kW=3.687215 Daily=RES1_25
New Load.BT_331365189_331776486_2 Bus1=node_412193045.2.4 Phases=1 Model=8 zipv=(0.5,0,0.5,1,0,0,0) kv=0.1270 pf=0.92 kW=3.687215 Daily=RES1_25
New Load.BT_331365189_331776486_3 Bus1=node_412193045.3.4 Phases=1 Model=8 zipv=(0.5,0,0.5,1,0,0,0) kv=0.1270 pf=0.92 kW=3.687215 Daily=RES1_25
New Load.BT_713920537_985799344_1 Bus1=node_987074878.1.4 Phases=1 Model=8 zipv=(0.5,0,0.5,1,0,0,0) kv=0.1200 pf=0.92 kW=0.649315 Daily=RES1_25
New Load.BT_713920537_985799344_2 Bus1=node_987074878.2.4 Phases=1 Model=8 zipv=(0.5,0,0.5,1,0,0,0) kv=0.1200 pf=0.92 kW=0.649315 Daily=RES1_25
New Load.BT_331364905_331723385_1 Bus1=node_412207607.1.4 Phases=1 Model=8 zipv=(0.5,0,0.5,1,0,0,0) kv=0.1270 pf=0.92 kW=3.248858 Daily=RES1_25
New Load.BT_331364905_331723385_2 Bus1=node_412207607.2.4 Phases=1 Model=8 zipv=(0.5,0,0.5,1,0,0,0) kv=0.1270 pf=0.92 kW=3.248858 Daily=RES1_25
New Load.BT_331364905_331723385_3 Bus1=node_412207607.3.4 Phases=1 Model=8 zipv=(0.5,0,0.5,1,0,0,0) kv=0.1270 pf=0.92 kW=3.248858 Daily=RES1_25
New Load.BT_331239663_331776429_1 Bus1=node_412190504.1.4 Phases=1 Model=8 zipv=(0.5,0,0.5,1,0,0,0) kv=0.1270 pf=0.92 kW=2.314612 Daily=RES1_25
New Load.BT_331239663_331776429_2 Bus1=node_412190504.2.4 Phases=1 Model=8 zipv=(0.5,0,0.5,1,0,0,0) kv=0.1270 pf=0.92 kW=2.314612 Daily=RES1_25
New Load.BT_331239663_331776429_3 Bus1=node_412190504.3.4 Phases=1 Model=8 zipv=(0.5,0,0.5,1,0,0,0) kv=0.1270 pf=0.92 kW=2.314612 Daily=RES1_25
New Load.BT_331239231_331765643_1 Bus1=node_412207094.1.4 Phases=1 Model=8 zipv=(0.5,0,0.5,1,0,0,0) kv=0.1270 pf=0.92 kW=5.149315 Daily=RES1_25
New Load.BT_331239231_331765643_2 Bus1=node_412207094.2.4 Phases=1 Model=8 zipv=(0.5,0,0.5,1,0,0,0) kv=0.1270 pf=0.92 kW=5.149315 Daily=RES1_25
New Load.BT_331239231_331765643_3 Bus1=node_412207094.3.4 Phases=1 Model=8 zipv=(0.5,0,0.5,1,0,0,0) kv=0.1270 pf=0.92 kW=5.149315 Daily=RES1_25
New Load.BT_331471255_331764436_1 Bus1=node_413011364.1.4 Phases=1 Model=8 zipv=(0.5,0,0.5,1,0,0,0) kv=0.1270 pf=0.92 kW=1.352511 Daily=RES1_25
New Load.BT_331471255_331764436_2 Bus1=node_413011364.2.4 Phases=1 Model=8 zipv=(0.5,0,0.5,1,0,0,0) kv=0.1270 pf=0.92 kW=1.352511 Daily=RES1_25
New Load.BT_331471255_331764436_3 Bus1=node_413011364.3.4 Phases=1 Model=8 zipv=(0.5,0,0.5,1,0,0,0) kv=0.1270 pf=0.92 kW=1.352511 Daily=RES1_25
New Load.BT_331473015_331776422_1 Bus1=node_412191260.1.4 Phases=1 Model=8 zipv=(0.5,0,0.5,1,0,0,0) kv=0.1200 pf=0.92 kW=3.283562 Daily=RES1_25
New Load.BT_331473015_331776422_2 Bus1=node_412191260.2.4 Phases=1 Model=8 zipv=(0.5,0,0.5,1,0,0,0) kv=0.1200 pf=0.92 kW=3.283562 Daily=RES1_25
New Load.BT_331366246_331729727_1 Bus1=node_413057415.1.4 Phases=1 Model=8 zipv=(0.5,0,0.5,1,0,0,0) kv=0.1270 pf=0.92 kW=2.952968 Daily=RES1_25
New Load.BT_331366246_331729727_2 Bus1=node_413057415.2.4 Phases=1 Model=8 zipv=(0.5,0,0.5,1,0,0,0) kv=0.1270 pf=0.92 kW=2.952968 Daily=RES1_25
New Load.BT_331366246_331729727_3 Bus1=node_413057415.3.4 Phases=1 Model=8 zipv=(0.5,0,0.5,1,0,0,0) kv=0.1270 pf=0.92 kW=2.952968 Daily=RES1_25
New Load.BT_331471476_331765631_1 Bus1=node_412191944.1.4 Phases=1 Model=8 zipv=(0.5,0,0.5,1,0,0,0) kv=0.1270 pf=0.92 kW=4.072603 Daily=RES1_25
New Load.BT_331471476_331765631_2 Bus1=node_412191944.2.4 Phases=1 Model=8 zipv=(0.5,0,0.5,1,0,0,0) kv=0.1270 pf=0.92 kW=4.072603 Daily=RES1_25
New Load.BT_331471476_331765631_3 Bus1=node_412191944.3.4 Phases=1 Model=8 zipv=(0.5,0,0.5,1,0,0,0) kv=0.1270 pf=0.92 kW=4.072603 Daily=RES1_25
New Load.BT_331473183_331572536_1 Bus1=node_412332814.1.4 Phases=1 Model=8 zipv=(0.5,0,0.5,1,0,0,0) kv=0.1270 pf=0.92 kW=6.188584 Daily=RES1_25
New Load.BT_331473183_331572536_2 Bus1=node_412332814.2.4 Phases=1 Model=8 zipv=(0.5,0,0.5,1,0,0,0) kv=0.1270 pf=0.92 kW=6.188584 Daily=RES1_25
New Load.BT_331473183_331572536_3 Bus1=node_412332814.3.4 Phases=1 Model=8 zipv=(0.5,0,0.5,1,0,0,0) kv=0.1270 pf=0.92 kW=6.188584 Daily=RES1_25
New Load.BT_331473558_331778738_1 Bus1=node_412190720.1.4 Phases=1 Model=8 zipv=(0.5,0,0.5,1,0,0,0) kv=0.1270 pf=0.92 kW=5.429680 Daily=RES1_25
New Load.BT_331473558_331778738_2 Bus1=node_412190720.2.4 Phases=1 Model=8 zipv=(0.5,0,0.5,1,0,0,0) kv=0.1270 pf=0.92 kW=5.429680 Daily=RES1_25
New Load.BT_331473558_331778738_3 Bus1=node_412190720.3.4 Phases=1 Model=8 zipv=(0.5,0,0.5,1,0,0,0) kv=0.1270 pf=0.92 kW=5.429680 Daily=RES1_25
New Load.BT_330773688_331778801_1 Bus1=node_412206863.1.4 Phases=1 Model=8 zipv=(0.5,0,0.5,1,0,0,0) kv=0.1270 pf=0.92 kW=7.690411 Daily=RES1_25
New Load.BT_330773688_331778801_2 Bus1=node_412206863.2.4 Phases=1 Model=8 zipv=(0.5,0,0.5,1,0,0,0) kv=0.1270 pf=0.92 kW=7.690411 Daily=RES1_25
New Load.BT_330773688_331778801_3 Bus1=node_412206863.3.4 Phases=1 Model=8 zipv=(0.5,0,0.5,1,0,0,0) kv=0.1270 pf=0.92 kW=7.690411 Daily=RES1_25
New Load.BT_331365787_331723369_1 Bus1=node_412193666.1.4 Phases=1 Model=8 zipv=(0.5,0,0.5,1,0,0,0) kv=0.1270 pf=0.92 kW=5.067123 Daily=RES1_25
New Load.BT_331365787_331723369_2 Bus1=node_412193666.2.4 Phases=1 Model=8 zipv=(0.5,0,0.5,1,0,0,0) kv=0.1270 pf=0.92 kW=5.067123 Daily=RES1_25
New Load.BT_331365787_331723369_3 Bus1=node_412193666.3.4 Phases=1 Model=8 zipv=(0.5,0,0.5,1,0,0,0) kv=0.1270 pf=0.92 kW=5.067123 Daily=RES1_25
New Load.BT_331474997_331730755_1 Bus1=node_412209980.1.4 Phases=1 Model=8 zipv=(0.5,0,0.5,1,0,0,0) kv=0.1270 pf=0.92 kW=4.857991 Daily=RES1_25
New Load.BT_331474997_331730755_2 Bus1=node_412209980.2.4 Phases=1 Model=8 zipv=(0.5,0,0.5,1,0,0,0) kv=0.1270 pf=0.92 kW=4.857991 Daily=RES1_25
New Load.BT_331474997_331730755_3 Bus1=node_412209980.3.4 Phases=1 Model=8 zipv=(0.5,0,0.5,1,0,0,0) kv=0.1270 pf=0.92 kW=4.857991 Daily=RES1_25
New Load.BT_331569959_331572717_1 Bus1=node_412192139.1.4 Phases=1 Model=8 zipv=(0.5,0,0.5,1,0,0,0) kv=0.1200 pf=0.92 kW=5.501370 Daily=RES1_25
New Load.BT_331569959_331572717_2 Bus1=node_412192139.2.4 Phases=1 Model=8 zipv=(0.5,0,0.5,1,0,0,0) kv=0.1200 pf=0.92 kW=5.501370 Daily=RES1_25
New Load.BT_330775211_331730574_1 Bus1=node_412355981.1.4 Phases=1 Model=8 zipv=(0.5,0,0.5,1,0,0,0) kv=0.1270 pf=0.92 kW=1.494977 Daily=RES1_25
New Load.BT_330775211_331730574_2 Bus1=node_412355981.2.4 Phases=1 Model=8 zipv=(0.5,0,0.5,1,0,0,0) kv=0.1270 pf=0.92 kW=1.494977 Daily=RES1_25
New Load.BT_330775211_331730574_3 Bus1=node_412355981.3.4 Phases=1 Model=8 zipv=(0.5,0,0.5,1,0,0,0) kv=0.1270 pf=0.92 kW=1.494977 Daily=RES1_25
New Load.BT_331570962_331776467_1 Bus1=node_412191917.1.4 Phases=1 Model=8 zipv=(0.5,0,0.5,1,0,0,0) kv=0.1270 pf=0.92 kW=1.860274 Daily=RES1_25
New Load.BT_331570962_331776467_2 Bus1=node_412191917.2.4 Phases=1 Model=8 zipv=(0.5,0,0.5,1,0,0,0) kv=0.1270 pf=0.92 kW=1.860274 Daily=RES1_25
New Load.BT_331570962_331776467_3 Bus1=node_412191917.3.4 Phases=1 Model=8 zipv=(0.5,0,0.5,1,0,0,0) kv=0.1270 pf=0.92 kW=1.860274 Daily=RES1_25
New Load.BT_331472225_1458439930_1 Bus1=node_412945143.1.4 Phases=1 Model=8 zipv=(0.5,0,0.5,1,0,0,0) kv=0.1200 pf=0.92 kW=0.602740 Daily=RES1_25
New Load.BT_331472225_1458439930_2 Bus1=node_412945143.2.4 Phases=1 Model=8 zipv=(0.5,0,0.5,1,0,0,0) kv=0.1200 pf=0.92 kW=0.602740 Daily=RES1_25
New Load.BT_326384272_326723150_1 Bus1=node_408270120.1.4 Phases=1 Model=8 zipv=(0.5,0,0.5,1,0,0,0) kv=0.1270 pf=0.92 kW=5.978539 Daily=RES1_25
New Load.BT_326384272_326723150_2 Bus1=node_408270120.2.4 Phases=1 Model=8 zipv=(0.5,0,0.5,1,0,0,0) kv=0.1270 pf=0.92 kW=5.978539 Daily=RES1_25
New Load.BT_326384272_326723150_3 Bus1=node_408270120.3.4 Phases=1 Model=8 zipv=(0.5,0,0.5,1,0,0,0) kv=0.1270 pf=0.92 kW=5.978539 Daily=RES1_25
New Load.BT_1045478060_1045478059_1 Bus1=node_459910684.1.4 Phases=1 Model=8 zipv=(0.5,0,0.5,1,0,0,0) kv=0.1270 pf=0.92 kW=1.436530 Daily=RES1_25
New Load.BT_1045478060_1045478059_2 Bus1=node_459910684.2.4 Phases=1 Model=8 zipv=(0.5,0,0.5,1,0,0,0) kv=0.1270 pf=0.92 kW=1.436530 Daily=RES1_25
New Load.BT_1045478060_1045478059_3 Bus1=node_459910684.3.4 Phases=1 Model=8 zipv=(0.5,0,0.5,1,0,0,0) kv=0.1270 pf=0.92 kW=1.436530 Daily=RES1_25
New Load.BT_331571253_331729886_1 Bus1=node_412849943.1.4 Phases=1 Model=8 zipv=(0.5,0,0.5,1,0,0,0) kv=0.1200 pf=0.92 kW=7.042466 Daily=RES1_25
New Load.BT_331571253_331729886_2 Bus1=node_412849943.2.4 Phases=1 Model=8 zipv=(0.5,0,0.5,1,0,0,0) kv=0.1200 pf=0.92 kW=7.042466 Daily=RES1_25
New Load.BT_331471773_1155451260_1 Bus1=node_412191998.1.4 Phases=1 Model=8 zipv=(0.5,0,0.5,1,0,0,0) kv=0.1270 pf=0.92 kW=8.153881 Daily=RES1_25
...

! --- cargas de media tensao (UCMT_tab) ---
New Load.MT_node_119516032_27 Bus1=node_119516032.1.2.3 Phases=3 Conn=wye Model=8 zipv=(0.5,0,0.5,1,0,0,0) kv=13.8000 pf=0.92 kW=2665.0753 Daily=MT1_1
New Load.MT_node_2846014522_29 Bus1=node_2846014522.1.2.3 Phases=3 Conn=wye Model=8 zipv=(0.5,0,0.5,1,0,0,0) kv=13.8000 pf=0.92 kW=1952.4041 Daily=MT1_1
New Load.MT_node_430394379_30 Bus1=node_430394379.1.2.3 Phases=3 Conn=wye Model=8 zipv=(0.5,0,0.5,1,0,0,0) kv=13.8000 pf=0.92 kW=1032.4740 Daily=MT1_1
New Load.MT_node_180118989_31 Bus1=node_180118989.1.2.3 Phases=3 Conn=wye Model=8 zipv=(0.5,0,0.5,1,0,0,0) kv=13.8000 pf=0.92 kW=405.1233 Daily=MT1_1
New Load.MT_node_119518907_32 Bus1=node_119518907.1.2.3 Phases=3 Conn=wye Model=8 zipv=(0.5,0,0.5,1,0,0,0) kv=13.8000 pf=0.92 kW=632.1986 Daily=MT1_1
New Load.MT_node_430594827_33 Bus1=node_430594827.1.2.3 Phases=3 Conn=wye Model=8 zipv=(0.5,0,0.5,1,0,0,0) kv=13.8000 pf=0.92 kW=641.7055 Daily=MT1_1
New Load.MT_node_112490716_34 Bus1=node_112490716.1.2.3 Phases=3 Conn=wye Model=8 zipv=(0.5,0,0.5,1,0,0,0) kv=13.8000 pf=0.92 kW=590.8055 Daily=MT1_1
New Load.MT_node_180118934_35 Bus1=node_180118934.1.2.3 Phases=3 Conn=wye Model=8 zipv=(0.5,0,0.5,1,0,0,0) kv=13.8000 pf=0.92 kW=299.3479 Daily=MT1_1
New Load.MT_node_180118944_36 Bus1=node_180118944.1.2.3 Phases=3 Conn=wye Model=8 zipv=(0.5,0,0.5,1,0,0,0) kv=13.8000 pf=0.92 kW=274.6507 Daily=MT1_1
New Load.MT_node_119517047_37 Bus1=node_119517047.1.2.3 Phases=3 Conn=wye Model=8 zipv=(0.5,0,0.5,1,0,0,0) kv=13.8000 pf=0.92 kW=232.1233 Daily=MT1_1
New Load.MT_node_126987899_38 Bus1=node_126987899.1.2.3 Phases=3 Conn=wye Model=8 zipv=(0.5,0,0.5,1,0,0,0) kv=13.8000 pf=0.92 kW=347.8356 Daily=MT1_1
New Load.MT_node_124832287_39 Bus1=node_124832287.1.2.3 Phases=3 Conn=wye Model=8 zipv=(0.5,0,0.5,1,0,0,0) kv=13.8000 pf=0.92 kW=53.6616 Daily=MT1_1
New Load.MT_node_180118909_40 Bus1=node_180118909.1.2.3 Phases=3 Conn=wye Model=8 zipv=(0.5,0,0.5,1,0,0,0) kv=13.8000 pf=0.92 kW=126.5110 Daily=MT1_1
New Load.MT_node_1564841261_42 Bus1=node_1564841261.1.2.3 Phases=3 Conn=wye Model=8 zipv=(0.5,0,0.5,1,0,0,0) kv=13.8000 pf=0.92 kW=178.6288 Daily=MT1_1
New Load.MT_node_107382220_43 Bus1=node_107382220.1.2.3 Phases=3 Conn=wye Model=8 zipv=(0.5,0,0.5,1,0,0,0) kv=13.8000 pf=0.92 kW=153.6575 Daily=MT1_1
New Load.MT_node_180119009_46 Bus1=node_180119009.1.2.3 Phases=3 Conn=wye Model=8 zipv=(0.5,0,0.5,1,0,0,0) kv=13.8000 pf=0.92 kW=130.9479 Daily=MT1_1
New Load.MT_node_445005287_47 Bus1=node_445005287.1.2.3 Phases=3 Conn=wye Model=8 zipv=(0.5,0,0.5,1,0,0,0) kv=13.8000 pf=0.92 kW=67.4082 Daily=MT2_1
New Load.MT_node_126987204_48 Bus1=node_126987204.1.2.3 Phases=3 Conn=wye Model=8 zipv=(0.5,0,0.5,1,0,0,0) kv=13.8000 pf=0.92 kW=67.9301 Daily=MT1_1
New Load.MT_node_428340058_49 Bus1=node_428340058.1.2.3 Phases=3 Conn=wye Model=8 zipv=(0.5,0,0.5,1,0,0,0) kv=13.8000 pf=0.92 kW=84.2918 Daily=MT3_1
New Load.MT_node_2503243815_50 Bus1=node_2503243815.1.2.3 Phases=3 Conn=wye Model=8 zipv=(0.5,0,0.5,1,0,0,0) kv=13.8000 pf=0.92 kW=23.0137 Daily=MT1_1
New Load.MT_node_180118879_51 Bus1=node_180118879.1.2.3 Phases=3 Conn=wye Model=8 zipv=(0.5,0,0.5,1,0,0,0) kv=13.8000 pf=0.92 kW=93.2726 Daily=MT1_1
New Load.MT_node_430394344_52 Bus1=node_430394344.3 Phases=1 Conn=wye Model=8 zipv=(0.5,0,0.5,1,0,0,0) kv=7.9674 pf=0.92 kW=52.3452 Daily=MT3_1
New Load.MT_node_112647411_55 Bus1=node_112647411.1.2.3 Phases=3 Conn=wye Model=8 zipv=(0.5,0,0.5,1,0,0,0) kv=13.8000 pf=0.92 kW=43.6301 Daily=MT1_1
New Load.MT_node_180118929_56 Bus1=node_180118929.1.2.3 Phases=3 Conn=wye Model=8 zipv=(0.5,0,0.5,1,0,0,0) kv=13.8000 pf=0.92 kW=52.2164 Daily=MT1_1
New Load.MT_node_427665580_57 Bus1=node_427665580.1.2.3 Phases=3 Conn=wye Model=8 zipv=(0.5,0,0.5,1,0,0,0) kv=13.8000 pf=0.92 kW=53.5808 Daily=MT1_1
New Load.MT_node_427666186_59 Bus1=node_427666186.1.2.3 Phases=3 Conn=wye Model=8 zipv=(0.5,0,0.5,1,0,0,0) kv=13.8000 pf=0.92 kW=27.6164 Daily=MT1_1
New Load.MT_node_2819054073_60 Bus1=node_2819054073.1.2.3 Phases=3 Conn=wye Model=8 zipv=(0.5,0,0.5,1,0,0,0) kv=13.8000 pf=0.92 kW=23.8137 Daily=MT1_1
New Load.MT_node_116876470_61 Bus1=node_116876470.1.2.3 Phases=3 Conn=wye Model=8 zipv=(0.5,0,0.5,1,0,0,0) kv=13.8000 pf=0.92 kW=23.8699 Daily=MT5_1
New Load.MT_node_2917628598_62 Bus1=node_2917628598.1.2.3 Phases=3 Conn=wye Model=8 zipv=(0.5,0,0.5,1,0,0,0) kv=13.8000 pf=0.92 kW=26.8466 Daily=MT1_1
New Load.MT_node_126070750_64 Bus1=node_126070750.1.2.3 Phases=3 Conn=wye Model=8 zipv=(0.5,0,0.5,1,0,0,0) kv=13.8000 pf=0.92 kW=16.9315 Daily=MT1_1
New Load.MT_node_112492121_65 Bus1=node_112492121.1.2.3 Phases=3 Conn=wye Model=8 zipv=(0.5,0,0.5,1,0,0,0) kv=13.8000 pf=0.92 kW=12.2438 Daily=MT1_1
New Load.MT_node_124831002_66 Bus1=node_124831002.1.2.3 Phases=3 Conn=wye Model=8 zipv=(0.5,0,0.5,1,0,0,0) kv=13.8000 pf=0.92 kW=12.5247 Daily=MT1_1
New Load.MT_node_112491531_70 Bus1=node_112491531.1.2.3 Phases=3 Conn=wye Model=8 zipv=(0.5,0,0.5,1,0,0,0) kv=13.8000 pf=0.92 kW=13.2548 Daily=MT1_1
New Load.MT_node_180118904_71 Bus1=node_180118904.1.2.3 Phases=3 Conn=wye Model=8 zipv=(0.5,0,0.5,1,0,0,0) kv=13.8000 pf=0.92 kW=12.1315 Daily=MT1_1
New Load.MT_node_502365960_73 Bus1=node_502365960.1.2.3 Phases=3 Conn=wye Model=8 zipv=(0.5,0,0.5,1,0,0,0) kv=13.8000 pf=0.92 kW=16.3973 Daily=MT1_1
New Load.MT_node_124832137_76 Bus1=node_124832137.1.2.3 Phases=3 Conn=wye Model=8 zipv=(0.5,0,0.5,1,0,0,0) kv=13.8000 pf=0.92 kW=4.0178 Daily=MT1_1
New Load.MT_node_116875750_77 Bus1=node_116875750.1.2.3 Phases=3 Conn=wye Model=8 zipv=(0.5,0,0.5,1,0,0,0) kv=13.8000 pf=0.92 kW=8.9301 Daily=MT1_1
New Load.MT_node_116876335_79 Bus1=node_116876335.1.2.3 Phases=3 Conn=wye Model=8 zipv=(0.5,0,0.5,1,0,0,0) kv=13.8000 pf=0.92 kW=6.0658 Daily=MT1_1
New Load.MT_node_112493571_81 Bus1=node_112493571.1.2.3 Phases=3 Conn=wye Model=8 zipv=(0.5,0,0.5,1,0,0,0) kv=13.8000 pf=0.92 kW=2.1904 Daily=MT1_1
New Load.MT_node_2494849949_82 Bus1=node_2494849949.1.2.3 Phases=3 Conn=wye Model=8 zipv=(0.5,0,0.5,1,0,0,0) kv=13.8000 pf=0.92 kW=3.8356 Daily=MT1_1
New Load.MT_node_435141173_83 Bus1=node_435141173.1.2.3 Phases=3 Conn=wye Model=8 zipv=(0.5,0,0.5,1,0,0,0) kv=13.8000 pf=0.92 kW=4.0438 Daily=MT1_1
New Load.MT_node_180118974_84 Bus1=node_180118974.1.2.3 Phases=3 Conn=wye Model=8 zipv=(0.5,0,0.5,1,0,0,0) kv=13.8000 pf=0.92 kW=3.2575 Daily=MT1_1
New Load.MT_node_2498262961_85 Bus1=node_2498262961.1.2.3 Phases=3 Conn=wye Model=8 zipv=(0.5,0,0.5,1,0,0,0) kv=13.8000 pf=0.92 kW=1.9178 Daily=MT1_1
New Load.MT_node_124831412_86 Bus1=node_124831412.1.2.3 Phases=3 Conn=wye Model=8 zipv=(0.5,0,0.5,1,0,0,0) kv=13.8000 pf=0.92 kW=0.2247 Daily=MT1_1
New Load.MT_node_2877607051_87 Bus1=node_2877607051.1.2.3 Phases=3 Conn=wye Model=8 zipv=(0.5,0,0.5,1,0,0,0) kv=13.8000 pf=0.92 kW=0.9589 Daily=MT1_1
New Load.MT_node_2877607051_89 Bus1=node_2877607051.1.2.3 Phases=3 Conn=wye Model=8 zipv=(0.5,0,0.5,1,0,0,0) kv=13.8000 pf=0.92 kW=0.9589 Daily=MT1_1
New Load.MT_node_2804653743_90 Bus1=node_2804653743.1.2.3 Phases=3 Conn=wye Model=8 zipv=(0.5,0,0.5,1,0,0,0) kv=13.8000 pf=0.92 kW=0.9589 Daily=MT1_1
New Load.MT_node_1721593738_91 Bus1=node_1721593738.1.2.3 Phases=3 Conn=wye Model=8 zipv=(0.5,0,0.5,1,0,0,0) kv=13.8000 pf=0.92 kW=3.8356 Daily=MT1_1
New Load.MT_node_2498262961_92 Bus1=node_2498262961.1.2.3 Phases=3 Conn=wye Model=8 zipv=(0.5,0,0.5,1,0,0,0) kv=13.8000 pf=0.92 kW=1.9178 Daily=MT1_1
New Load.MT_node_2877607051_93 Bus1=node_2877607051.1.2.3 Phases=3 Conn=wye Model=8 zipv=(0.5,0,0.5,1,0,0,0) kv=13.8000 pf=0.92 kW=0.9589 Daily=MT1_1
New Load.MT_node_126771118_94 Bus1=node_126771118.1.2.3 Phases=3 Conn=wye Model=8 zipv=(0.5,0,0.5,1,0,0,0) kv=13.8000 pf=0.92 kW=1.4603 Daily=MT1_1
New Load.MT_node_2804653743_95 Bus1=node_2804653743.1.2.3 Phases=3 Conn=wye Model=8 zipv=(0.5,0,0.5,1,0,0,0) kv=13.8000 pf=0.92 kW=0.9589 Daily=MT1_1
New Load.MT_node_2498262961_97 Bus1=node_2498262961.1.2.3 Phases=3 Conn=wye Model=8 zipv=(0.5,0,0.5,1,0,0,0) kv=13.8000 pf=0.92 kW=1.9178 Daily=MT1_1
New Load.MT_node_2804653743_98 Bus1=node_2804653743.1.2.3 Phases=3 Conn=wye Model=8 zipv=(0.5,0,0.5,1,0,0,0) kv=13.8000 pf=0.92 kW=0.9589 Daily=MT1_1
New Load.MT_node_116875790_100 Bus1=node_116875790.1.2.3 Phases=3 Conn=wye Model=8 zipv=(0.5,0,0.5,1,0,0,0) kv=13.8000 pf=0.92 kW=34.8781 Daily=MT1_1
New Load.MT_node_126988104_101 Bus1=node_126988104.1.2.3 Phases=3 Conn=wye Model=8 zipv=(0.5,0,0.5,1,0,0,0) kv=13.8000 pf=0.92 kW=9.0986 Daily=MT1_1
New Load.MT_node_2479467422_102 Bus1=node_2479467422.1.2.3 Phases=3 Conn=wye Model=8 zipv=(0.5,0,0.5,1,0,0,0) kv=13.8000 pf=0.92 kW=120.3425 Daily=MT1_1
New Load.MT_node_180119004_103 Bus1=node_180119004.1.2.3 Phases=3 Conn=wye Model=8 zipv=(0.5,0,0.5,1,0,0,0) kv=13.8000 pf=0.92 kW=0.4795 Daily=MT1_1
New Load.MT_node_124832162_104 Bus1=node_124832162.1.2.3 Phases=3 Conn=wye Model=8 zipv=(0.5,0,0.5,1,0,0,0) kv=13.8000 pf=0.92 kW=17.7479 Daily=MT1_1
New Load.MT_node_126069825_105 Bus1=node_126069825.1.2.3 Phases=3 Conn=wye Model=8 zipv=(0.5,0,0.5,1,0,0,0) kv=13.8000 pf=0.92 kW=36.5068 Daily=MT1_1
New Load.MT_node_112320785_106 Bus1=node_112320785.1.2.3 Phases=3 Conn=wye Model=8 zipv=(0.5,0,0.5,1,0,0,0) kv=13.8000 pf=0.92 kW=42.4041 Daily=MT1_1
New Load.MT_node_126895905_107 Bus1=node_126895905.1.2.3 Phases=3 Conn=wye Model=8 zipv=(0.5,0,0.5,1,0,0,0) kv=13.8000 pf=0.92 kW=8.5370 Daily=MT1_1
New Load.MT_node_124830942_108 Bus1=node_124830942.1.2.3 Phases=3 Conn=wye Model=8 zipv=(0.5,0,0.5,1,0,0,0) kv=13.8000 pf=0.92 kW=10.2219 Daily=MT1_1
New Load.MT_node_2001412208_109 Bus1=node_2001412208.1.2.3 Phases=3 Conn=wye Model=8 zipv=(0.5,0,0.5,1,0,0,0) kv=13.8000 pf=0.92 kW=127.5342 Daily=MT1_1
New Load.MT_node_119518592_110 Bus1=node_119518592.1.2.3 Phases=3 Conn=wye Model=8 zipv=(0.5,0,0.5,1,0,0,0) kv=13.8000 pf=0.92 kW=3.9315 Daily=MT5_1
New Load.MT_node_2853223284_111 Bus1=node_2853223284.1.2.3 Phases=3 Conn=wye Model=8 zipv=(0.5,0,0.5,1,0,0,0) kv=13.8000 pf=0.92 kW=112.6027 Daily=MT1_1
New Load.MT_node_116875760_113 Bus1=node_116875760.1.2.3 Phases=3 Conn=wye Model=8 zipv=(0.5,0,0.5,1,0,0,0) kv=13.8000 pf=0.92 kW=77.9562 Daily=MT1_1
New Load.MT_node_112646626_114 Bus1=node_112646626.1.2.3 Phases=3 Conn=wye Model=8 zipv=(0.5,0,0.5,1,0,0,0) kv=13.8000 pf=0.92 kW=6.9644 Daily=MT1_1
New Load.MT_node_428339863_115 Bus1=node_428339863.1.2.3 Phases=3 Conn=wye Model=8 zipv=(0.5,0,0.5,1,0,0,0) kv=13.8000 pf=0.92 kW=11.1767 Daily=MT1_1
New Load.MT_node_445004609_116 Bus1=node_445004609.1.2.3 Phases=3 Conn=wye Model=8 zipv=(0.5,0,0.5,1,0,0,0) kv=13.8000 pf=0.92 kW=60.1233 Daily=MT2_1
